*********************************************************************
*  (C)  Copyright 2017 Toshiba Electronic Devices & Storage Corporation
*  Date:                19/09/2017
*  File Name:           2SC4117.lib
*  Part Number:         2SC4117
*  Parameter Ver.:      Ver.1
*  Simulator:           PSpice
*  Model Call Name:     2SC4117
*  TNOM:                25 degree
*  Pin Assign:          1=Collector 2=Base 3=Emitter
*
* Operation of this model has been verified only on the OrCAD.
*********************************************************************
.SUBCKT 2SC4117 1 2 3
Q1 1 2 3 3 2SC4117_BJT
.MODEL 2SC4117_BJT NPN(
+ LEVEL = 1
+ IS = 1e-013
+ BF = 330
+ NF = 1
+ VAF = 276.3
+ IKF = 0.26
+ ISE = 1.37E-012
+ NE = 1.8
+ BR = 2.3
+ NR = 1
+ VAR = 100
+ IKR = 10
+ ISC = 2e-010
+ NC = 1.6
+ NK = 0.58
+ RE = 0.2
+ RB = 10
+ RC = 0.12
+ CJE = 1.435E-011
+ VJE = 0.75
+ MJE = 0.33
+ CJC = 5.714e-012
+ VJC = 0.74498
+ MJC = 0.22504
+ FC = 0.5
+ TF = 4.6e-010
+ XTF = 10
+ VTF = 5
+ ITF = 0.1
+ PTF = 0
+ TR = 10E-09
+ EG = 1.11
+ XTB = 1.4
+ XTI = 4
+ TRC1 = 0.01
+ TNOM = 25)
.ENDS
